!- Windows Line endings 

Version,
    9.2;                      !- Version Identifier

SimulationControl,
    Yes,                      !- Do Zone Sizing Calculation
    Yes,                      !- Do System Sizing Calculation
    Yes,                      !- Do Plant Sizing Calculation
    No,                       !- Run Simulation for Sizing Periods
    Yes;                      !- Run Simulation for Weather File Run Periods

Building,
    PVZEN,                    !- Name
    26,                       !- North Axis
    ,                         !- Terrain
    ,                         !- Loads Convergence Tolerance Value
    ,                         !- Temperature Convergence Tolerance Value
    ,                         !- Solar Distribution
    ,                         !- Maximum Number of Warmup Days
    ;                         !- Minimum Number of Warmup Days

ShadowCalculation,
    TimestepFrequency,        !- Calculation Method
    ,                         !- Calculation Frequency
    15000,                    !- Maximum Figures in Shadow Overlap Calculations
    SutherlandHodgman,        !- Polygon Clipping Algorithm
    SimpleSkyDiffuseModeling;    !- Sky Diffuse Modeling Algorithm

Timestep,
    1;                        !- Number of Timesteps per Hour

ConvergenceLimits,
    1,                        !- Minimum System Timestep
    500,                      !- Maximum HVAC Iterations
    200,                      !- Minimum Plant Iterations
    800;                      !- Maximum Plant Iterations

Site:Location,
    Turin,                    !- Name
    45.0657,                  !- Latitude
    7.6584,                   !- Longitude
    1,                        !- Time Zone
    0;                        !- Elevation

SizingPeriod:DesignDay,
    Inverno,                  !- Name
    1,                        !- Month
    13,                       !- Day of Month
    WinterDesignDay,          !- Day Type
    -8,                       !- Maximum DryBulb Temperature
    0,                        !- Daily DryBulb Temperature Range
    DefaultMultipliers,       !- DryBulb Temperature Range Modifier Type
    ,                         !- DryBulb Temperature Range Modifier Day Schedule Name
    WetBulb,                  !- Humidity Condition Type
    -8.5,                     !- Wetbulb or DewPoint at Maximum DryBulb
    ,                         !- Humidity Condition Day Schedule Name
    ,                         !- Humidity Ratio at Maximum DryBulb
    ,                         !- Enthalpy at Maximum DryBulb
    ,                         !- Daily WetBulb Temperature Range
    ,                         !- Barometric Pressure
    0.8,                      !- Wind Speed
    26,                       !- Wind Direction
    No,                       !- Rain Indicator
    No,                       !- Snow Indicator
    No,                       !- Daylight Saving Time Indicator
    ASHRAEClearSky,           !- Solar Model Indicator
    ,                         !- Beam Solar Day Schedule Name
    ,                         !- Diffuse Solar Day Schedule Name
    ,                         !- ASHRAE Clear Sky Optical Depth for Beam Irradiance taub
    ,                         !- ASHRAE Clear Sky Optical Depth for Diffuse Irradiance taud
    0;                        !- Sky Clearness

SizingPeriod:DesignDay,
    Estate,                   !- Name
    7,                        !- Month
    22,                       !- Day of Month
    SummerDesignDay,          !- Day Type
    30.8,                     !- Maximum DryBulb Temperature
    11,                       !- Daily DryBulb Temperature Range
    DefaultMultipliers,       !- DryBulb Temperature Range Modifier Type
    ,                         !- DryBulb Temperature Range Modifier Day Schedule Name
    WetBulb,                  !- Humidity Condition Type
    23,                       !- Wetbulb or DewPoint at Maximum DryBulb
    ,                         !- Humidity Condition Day Schedule Name
    ,                         !- Humidity Ratio at Maximum DryBulb
    ,                         !- Enthalpy at Maximum DryBulb
    ,                         !- Daily WetBulb Temperature Range
    ,                         !- Barometric Pressure
    0.8,                      !- Wind Speed
    26,                       !- Wind Direction
    No,                       !- Rain Indicator
    No,                       !- Snow Indicator
    No,                       !- Daylight Saving Time Indicator
    ASHRAEClearSky,           !- Solar Model Indicator
    ,                         !- Beam Solar Day Schedule Name
    ,                         !- Diffuse Solar Day Schedule Name
    ,                         !- ASHRAE Clear Sky Optical Depth for Beam Irradiance taub
    ,                         !- ASHRAE Clear Sky Optical Depth for Diffuse Irradiance taud
    1;                        !- Sky Clearness

RunPeriod,
    TypoYear,                 !- Name
    6,                        !- Begin Month
    1,                        !- Begin Day of Month
    ,                         !- Begin Year
    8,                        !- End Month
    31,                       !- End Day of Month
    ,                         !- End Year
    Tuesday,                  !- Day of Week for Start Day
    No,                       !- Use Weather File Holidays and Special Days
    No,                       !- Use Weather File Daylight Saving Period
    No,                       !- Apply Weekend Holiday Rule
    Yes,                      !- Use Weather File Rain Indicators
    Yes;                      !- Use Weather File Snow Indicators

ScheduleTypeLimits,
    Fraction,                 !- Name
    0,                        !- Lower Limit Value
    1,                        !- Upper Limit Value
    Continuous,               !- Numeric Type
    Dimensionless;            !- Unit Type

ScheduleTypeLimits,
    Temperatura,              !- Name
    0,                        !- Lower Limit Value
    50,                       !- Upper Limit Value
    Continuous,               !- Numeric Type
    Temperature;              !- Unit Type

ScheduleTypeLimits,
    Temperature,              !- Name
    -60,                      !- Lower Limit Value
    200,                      !- Upper Limit Value
    CONTINUOUS,               !- Numeric Type
    Temperature;              !- Unit Type

ScheduleTypeLimits,
    Control Type,             !- Name
    0,                        !- Lower Limit Value
    4,                        !- Upper Limit Value
    DISCRETE;                 !- Numeric Type

ScheduleTypeLimits,
    On/Off,                   !- Name
    0,                        !- Lower Limit Value
    1,                        !- Upper Limit Value
    DISCRETE;                 !- Numeric Type

ScheduleTypeLimits,
    Any Number;               !- Name

ScheduleTypeLimits,
    HumidityRatio,            !- Name
    0.0001,                   !- Lower Limit Value
    0.012,                    !- Upper Limit Value
    CONTINUOUS;               !- Numeric Type

Schedule:Compact,
    OCCUPANCY SCHEDULE,       !- Name
    Fraction,                 !- Schedule Type Limits Name
    Through: 12/31,           !- Field 1
    For: Weekdays SummerDesignDay,    !- Field 2
    Until 7:00,               !- Field 3
    0.0,                      !- Field 4
    Until 20:00,              !- Field 5
    1.0,                      !- Field 6
    Until:24:00,              !- Field 7
    0.0,                      !- Field 8
    For: Weekends WinterDesignDay AllOtherDays,    !- Field 9
    Until:24:00,              !- Field 10
    0.0;                      !- Field 11

Schedule:Compact,
    HVAC OPERATION SCHEDULE,    !- Name
    Fraction,                 !- Schedule Type Limits Name
    Through: 12/31,           !- Field 1
    For: Weekdays SummerDesignDay,    !- Field 2
    Until: 8:30,              !- Field 3
    0.0,                      !- Field 4
    Until:18:00,              !- Field 5
    1.0,                      !- Field 6
    Until:24:00,              !- Field 7
    0.0,                      !- Field 8
    For: Weekends WinterDesignDay AllOtherDays,    !- Field 9
    Until:24:00,              !- Field 10
    0.0;                      !- Field 11

Schedule:Compact,
    AS INFILTRATION SCHEDULE,    !- Name
    Fraction,                 !- Schedule Type Limits Name
    Through: 12/31,           !- Field 1
    For: Weekdays SummerDesignDay,    !- Field 2
    Until: 8:00,              !- Field 3
    1.0,                      !- Field 4
    Until:18:00,              !- Field 5
    0.0,                      !- Field 6
    Until:24:00,              !- Field 7
    1.0,                      !- Field 8
    For: Weekends WinterDesignDay AllOtherDays,    !- Field 9
    Until:24:00,              !- Field 10
    1.0;                      !- Field 11

Schedule:Compact,
    ActivityLevel,            !- Name
    Any Number,               !- Schedule Type Limits Name
    Through: 12/31,           !- Field 1
    For: Alldays,             !- Field 2
    Until: 24:00,             !- Field 3
    126.00;                   !- Field 4

Schedule:Compact,
    OFF,                      !- Name
    Fraction,                 !- Schedule Type Limits Name
    Through: 12/31,           !- Field 1
    For: Alldays,             !- Field 2
    Until: 24:00,             !- Field 3
    0.00;                     !- Field 4

Schedule:Compact,
    ON,                       !- Name
    Fraction,                 !- Schedule Type Limits Name
    Through: 12/31,           !- Field 1
    For: Alldays,             !- Field 2
    Until: 24:00,             !- Field 3
    1.00;                     !- Field 4

Schedule:Compact,
    ChW LOOP TEMP SCHEDULE,    !- Name
    TEMPERATURE,              !- Schedule Type Limits Name
    Through: 12/31,           !- Field 1
    For: Alldays,             !- Field 2
    Until: 24:00,             !- Field 3
    7;                        !- Field 4

Schedule:Compact,
    HW LOOP TEMP SCHEDULE,    !- Name
    TEMPERATURE,              !- Schedule Type Limits Name
    Through: 12/31,           !- Field 1
    For: Alldays,             !- Field 2
    Until: 24:00,             !- Field 3
    50.00;                    !- Field 4

Schedule:Compact,
    HEATING SETPOINTS,        !- Name
    TEMPERATURE,              !- Schedule Type Limits Name
    Through: 12/31,           !- Field 1
    For: Weekdays Weekends Holidays CustomDay1 CustomDay2,    !- Field 2
    Until: 7:00,              !- Field 3
    17.00,                    !- Field 4
    Until: 18:00,             !- Field 5
    20.00,                    !- Field 6
    Until: 24:00,             !- Field 7
    17.00,                    !- Field 8
    For: SummerDesignDay,     !- Field 9
    Until: 24:00,             !- Field 10
    17.00,                    !- Field 11
    For: WinterDesignDay,     !- Field 12
    Until: 24:00,             !- Field 13
    20.00;                    !- Field 14

Schedule:Compact,
    COOLING SETPOINTS,        !- Name
    TEMPERATURE,              !- Schedule Type Limits Name
    Through: 12/31,           !- Field 1
    For: Weekdays Weekends Holidays CustomDay1 CustomDay2,    !- Field 2
    Until: 7:00,              !- Field 3
    30.00,                    !- Field 4
    Until: 18:00,             !- Field 5
    26.00,                    !- Field 6
    Until: 24:00,             !- Field 7
    30.00,                    !- Field 8
    For: SummerDesignDay,     !- Field 9
    Until: 24:00,             !- Field 10
    26.00,                    !- Field 11
    For: WinterDesignDay,     !- Field 12
    Until: 24:00,             !- Field 13
    50.00;                    !- Field 14

Schedule:Compact,
    ZONE CONTROL TYPE SCHED,    !- Name
    CONTROL TYPE,             !- Schedule Type Limits Name
    Through: 3/31,            !- Field 1
    For: Alldays,             !- Field 2
    Until: 24:00,             !- Field 3
    1,                        !- Field 4
    Through: 9/30,            !- Field 5
    For: Alldays,             !- Field 6
    Until: 24:00,             !- Field 7
    2,                        !- Field 8
    Through: 12/31,           !- Field 9
    For: Alldays,             !- Field 10
    Until: 24:00,             !- Field 11
    1;                        !- Field 12

Schedule:Compact,
    ChW Loop Availability Schedule,    !- Name
    Fraction,                 !- Schedule Type Limits Name
    Through 05/31,            !- Field 1
    For AllDays,              !- Field 2
    Until 24:00,              !- Field 3
    0,                        !- Field 4
    Through 09/15,            !- Field 5
    For AllDays,              !- Field 6
    Until 24:00,              !- Field 7
    1,                        !- Field 8
    Through 12/31,            !- Field 9
    For AllDays,              !- Field 10
    Until 24:00,              !- Field 11
    0;                        !- Field 12

Schedule:Compact,
    HW Loop Availability Schedule,    !- Name
    Fraction,                 !- Schedule Type Limits Name
    Through 04/01,            !- Field 1
    For AllDays,              !- Field 2
    Until 24:00,              !- Field 3
    1,                        !- Field 4
    Through 10/15,            !- Field 5
    For AllDays,              !- Field 6
    Until 24:00,              !- Field 7
    0,                        !- Field 8
    Through 12/31,            !- Field 9
    For AllDays,              !- Field 10
    Until 24:00,              !- Field 11
    1;                        !- Field 12

Schedule:Compact,
    StorageTank Temp Schedule,    !- Name
    Temperature,              !- Schedule Type Limits Name
    Through: 12/31,           !- Field 1
    For: AllDays,             !- Field 2
    Until: 24:00,             !- Field 3
    10;                       !- Field 4

Schedule:Compact,
    Chiller Schedule,         !- Name
    on/off,                   !- Schedule Type Limits Name
    Through: 12/31,           !- Field 1
    For: Weekdays SummerDesignDay,    !- Field 2
    Until: 8:00,              !- Field 3
    1.0,                      !- Field 4
    Until: 10:00,             !- Field 5
    0.0,                      !- Field 6
    Until: 24:00,             !- Field 7
    1.0,                      !- Field 8
    For: Weekends Holidays,    !- Field 9
    Until: 24:00,             !- Field 10
    0.0,                      !- Field 11
    For: WinterDesignDay,     !- Field 12
    Until: 24:00,             !- Field 13
    0.0;                      !- Field 14

Schedule:Compact,
    TES Charge Schedule,      !- Name
    on/off,                   !- Schedule Type Limits Name
    Through: 12/31,           !- Field 1
    For: Weekdays SummerDesignDay,    !- Field 2
    Until: 0:00,              !- Field 3
    0.0,                      !- Field 4
    Until: 8:00,              !- Field 5
    1.0,                      !- Field 6
    Until: 10:00,             !- Field 7
    0.0,                      !- Field 8
    Until: 19:00,             !- Field 9
    0.0,                      !- Field 10
    Until: 24:00,             !- Field 11
    0.0,                      !- Field 12
    For: Weekends Holidays WinterDesignDay,    !- Field 13
    Until: 24:00,             !- Field 14
    0.0;                      !- Field 15

Schedule:Compact,
    TES ChargeFlow Schedule,    !- Name
    on/off,                   !- Schedule Type Limits Name
    Through: 12/31,           !- Field 1
    For: Weekdays SummerDesignDay,    !- Field 2
    Until: 2:00,              !- Field 3
    0.1,                      !- Field 4
    Until: 8:00,              !- Field 5
    0.5,                      !- Field 6
    Until: 10:00,             !- Field 7
    0.0,                      !- Field 8
    Until: 19:00,             !- Field 9
    0.0,                      !- Field 10
    Until: 24:00,             !- Field 11
    0.0,                      !- Field 12
    For: Weekends Holidays WinterDesignDay,    !- Field 13
    Until: 24:00,             !- Field 14
    0.0;                      !- Field 15

Schedule:Compact,
    TES Discharge Schedule,    !- Name
    on/off,                   !- Schedule Type Limits Name
    Through: 12/31,           !- Field 1
    For: Weekdays SummerDesignDay,    !- Field 2
    Until: 8:00,              !- Field 3
    0.0,                      !- Field 4
    Until: 10:00,             !- Field 5
    1.0,                      !- Field 6
    Until: 24:00,             !- Field 7
    0.0,                      !- Field 8
    For: Weekends Holidays WinterDesignDay AllOtherDays,    !- Field 9
    Until: 24:00,             !- Field 10
    0.0;                      !- Field 11

Schedule:Compact,
    PlantHPWHSch,             !- Name
    Any Number,               !- Schedule Type Limits Name
    Through: 12/31,           !- Field 1
    For: AllDays,             !- Field 2
    Until: 24:00,             !- Field 3
    1.0;                      !- Field 4

Schedule:Compact,
    PlantHPWHTempSch,         !- Name
    Any Number,               !- Schedule Type Limits Name
    Through: 12/31,           !- Field 1
    For: AllDays,             !- Field 2
    Until: 24:00,             !- Field 3
    60.0;                     !- Field 4

Schedule:Compact,
    Plant Hot Water Setpoint Temp Schedule,    !- Name
    Any Number,               !- Schedule Type Limits Name
    Through: 12/31,           !- Field 1
    For: AllDays,             !- Field 2
    Until: 24:00,             !- Field 3
    50.0;                     !- Field 4

Schedule:Constant,
    IDEAL LOAD SCHEDULE,      !- Name
    Any Number,               !- Schedule Type Limits Name
    -10000;                   !- Hourly Value

Schedule:Constant,
    NULL LOAD SCHEDULE,       !- Name
    Any Number,               !- Schedule Type Limits Name
    1;                        !- Hourly Value

Schedule:Constant,
    IDEAL FLOWfrac SCHEDULE,    !- Name
    Any Number,               !- Schedule Type Limits Name
    1;                        !- Hourly Value

Schedule:Constant,
    EP FLOWFRACTION TO STORAGE,    !- Name
    Any Number,               !- Schedule Type Limits Name
    1;                        !- Hourly Value

Material,
    Pavimento flottante laminato,    !- Name
    MediumSmooth,             !- Roughness
    0.03,                     !- Thickness
    0.15,                     !- Conductivity
    720,                      !- Density
    1610;                     !- Specific Heat

Material,
    Membrana freno vapore,    !- Name
    MediumSmooth,             !- Roughness
    0.0004,                   !- Thickness
    0.17,                     !- Conductivity
    275,                      !- Density
    1000;                     !- Specific Heat

Material,
    OSB 18,                   !- Name
    MediumSmooth,             !- Roughness
    0.018,                    !- Thickness
    0.12,                     !- Conductivity
    640,                      !- Density
    1700;                     !- Specific Heat

Material,
    Fibra di legno Plus 40,    !- Name
    MediumSmooth,             !- Roughness
    0.04,                     !- Thickness
    0.04,                     !- Conductivity
    150,                      !- Density
    2400;                     !- Specific Heat

Material,
    CLT 260,                  !- Name
    MediumSmooth,             !- Roughness
    0.26,                     !- Thickness
    0.13,                     !- Conductivity
    500,                      !- Density
    1600;                     !- Specific Heat

Material,
    Sughero 100,              !- Name
    MediumSmooth,             !- Roughness
    0.1,                      !- Thickness
    0.039,                    !- Conductivity
    120,                      !- Density
    1900;                     !- Specific Heat

Material,
    Membrana traspirante,     !- Name
    MediumSmooth,             !- Roughness
    0.0007,                   !- Thickness
    0.18,                     !- Conductivity
    743,                      !- Density
    1000;                     !- Specific Heat

Material,
    Fibra di legno Plus 100,    !- Name
    MediumSmooth,             !- Roughness
    0.1,                      !- Thickness
    0.04,                     !- Conductivity
    150,                      !- Density
    2400;                     !- Specific Heat

Material,
    Fibra di legno 100,       !- Name
    MediumSmooth,             !- Roughness
    0.1,                      !- Thickness
    0.038,                    !- Conductivity
    120,                      !- Density
    2400;                     !- Specific Heat

Material,
    CLT 140,                  !- Name
    MediumSmooth,             !- Roughness
    0.14,                     !- Thickness
    0.13,                     !- Conductivity
    500,                      !- Density
    1600;                     !- Specific Heat

Material,
    Paglia di riso,           !- Name
    MediumSmooth,             !- Roughness
    0.2,                      !- Thickness
    0.043,                    !- Conductivity
    120,                      !- Density
    1900;                     !- Specific Heat

Material,
    CLT 100,                  !- Name
    MediumSmooth,             !- Roughness
    0.1,                      !- Thickness
    0.13,                     !- Conductivity
    500,                      !- Density
    1600;                     !- Specific Heat

Material,
    Fibra di legno Flex 100,    !- Name
    MediumSmooth,             !- Roughness
    0.1,                      !- Thickness
    0.038,                    !- Conductivity
    50,                       !- Density
    2100;                     !- Specific Heat

Material,
    Fibrogesso,               !- Name
    MediumSmooth,             !- Roughness
    0.0125,                   !- Thickness
    0.32,                     !- Conductivity
    1150,                     !- Density
    1100;                     !- Specific Heat

Material,
    Intonaco,                 !- Name
    MediumSmooth,             !- Roughness
    0.005,                    !- Thickness
    0.6,                      !- Conductivity
    1300,                     !- Density
    900;                      !- Specific Heat

Material,
    Fibra di legno Flex 60,    !- Name
    MediumSmooth,             !- Roughness
    0.06,                     !- Thickness
    0.038,                    !- Conductivity
    50,                       !- Density
    2100;                     !- Specific Heat

Material,
    OSB 15,                   !- Name
    MediumSmooth,             !- Roughness
    0.015,                    !- Thickness
    0.12,                     !- Conductivity
    640,                      !- Density
    1700;                     !- Specific Heat

Material,
    Fibra di legno 160,       !- Name
    MediumSmooth,             !- Roughness
    0.16,                     !- Thickness
    0.038,                    !- Conductivity
    120,                      !- Density
    2400;                     !- Specific Heat

Material,
    Fibra di legno DWD Protect,    !- Name
    MediumSmooth,             !- Roughness
    0.016,                    !- Thickness
    0.09,                     !- Conductivity
    565,                      !- Density
    2100;                     !- Specific Heat

Material,
    RH 700,                   !- Name
    MediumSmooth,             !- Roughness
    0.022,                    !- Thickness
    0.129,                    !- Conductivity
    750,                      !- Density
    1300;                     !- Specific Heat

Material,
    RH 400,                   !- Name
    MediumSmooth,             !- Roughness
    0.006,                    !- Thickness
    0.5,                      !- Conductivity
    1410,                     !- Density
    1300;                     !- Specific Heat

Material,
    RH 200,                   !- Name
    MediumSmooth,             !- Roughness
    0.002,                    !- Thickness
    0.17,                     !- Conductivity
    1100,                     !- Density
    1300;                     !- Specific Heat

Material,
    Tavolato abete grezzo 25,    !- Name
    MediumSmooth,             !- Roughness
    0.025,                    !- Thickness
    0.13,                     !- Conductivity
    540,                      !- Density
    2000;                     !- Specific Heat

Material,
    Fibra di legno Flex 40,    !- Name
    MediumSmooth,             !- Roughness
    0.04,                     !- Thickness
    0.038,                    !- Conductivity
    50,                       !- Density
    2100;                     !- Specific Heat

Material,
    Membrana traspirante facciata,    !- Name
    MediumSmooth,             !- Roughness
    0.0004,                   !- Thickness
    0.18,                     !- Conductivity
    725,                      !- Density
    1000;                     !- Specific Heat

Material,
    Doghe in legno,           !- Name
    MediumSmooth,             !- Roughness
    0.019,                    !- Thickness
    0.09,                     !- Conductivity
    408,                      !- Density
    1380;                     !- Specific Heat

Material,
    Sughero MD,               !- Name
    MediumSmooth,             !- Roughness
    0.04,                     !- Thickness
    0.043,                    !- Conductivity
    120,                      !- Density
    1900;                     !- Specific Heat

Material,
    Sughero 50,               !- Name
    MediumSmooth,             !- Roughness
    0.05,                     !- Thickness
    0.039,                    !- Conductivity
    120,                      !- Density
    1900;                     !- Specific Heat

Material,
    Controparete listelli di abete,    !- Name
    MediumSmooth,             !- Roughness
    0.06,                     !- Thickness
    0.13,                     !- Conductivity
    540,                      !- Density
    2000;                     !- Specific Heat

Material,
    Fibra di legno Plus 60,    !- Name
    MediumSmooth,             !- Roughness
    0.06,                     !- Thickness
    0.04,                     !- Conductivity
    150,                      !- Density
    2400;                     !- Specific Heat

Material,
    Tavolato abete grezzo 24,    !- Name
    MediumSmooth,             !- Roughness
    0.024,                    !- Thickness
    0.13,                     !- Conductivity
    540,                      !- Density
    2000;                     !- Specific Heat

Material,
    Lamiera zintek,           !- Name
    MediumSmooth,             !- Roughness
    0.0007,                   !- Thickness
    109,                      !- Conductivity
    7140,                     !- Density
    401;                      !- Specific Heat

Material,
    Doppio fibrogesso,        !- Name
    MediumSmooth,             !- Roughness
    0.025,                    !- Thickness
    0.32,                     !- Conductivity
    1150,                     !- Density
    1100;                     !- Specific Heat

Material,
    Porta - abete,            !- Name
    MediumSmooth,             !- Roughness
    0.025,                    !- Thickness
    0.12,                     !- Conductivity
    450,                      !- Density
    1700;                     !- Specific Heat

Material,
    Porta - acciaio,          !- Name
    MediumSmooth,             !- Roughness
    0.003,                    !- Thickness
    52,                       !- Conductivity
    7800,                     !- Density
    450;                      !- Specific Heat

Material,
    Porta - pannello rigido,    !- Name
    MediumSmooth,             !- Roughness
    0.02,                     !- Thickness
    0.0385,                   !- Conductivity
    100,                      !- Density
    1000;                     !- Specific Heat

Material,
    CONCRETE - DRIED SAND AND GRAVEL 4 IN,    !- Name
    MediumRough,              !- Roughness
    0.1,                      !- Thickness
    1.29,                     !- Conductivity
    2242.58,                  !- Density
    830,                      !- Specific Heat
    0.9,                      !- Thermal Absorptance
    0.6,                      !- Solar Absorptance
    0.6;                      !- Visible Absorptance

Material,
    INS - EXPANDED EXT POLYSTYRENE R12 2 IN,    !- Name
    Rough,                    !- Roughness
    0.050000001,              !- Thickness
    0.02,                     !- Conductivity
    56.06,                    !- Density
    1210,                     !- Specific Heat
    0.9,                      !- Thermal Absorptance
    0.5,                      !- Solar Absorptance
    0.5;                      !- Visible Absorptance

Material,
    GYP1,                     !- Name
    MediumRough,              !- Roughness
    0.0127,                   !- Thickness
    0.7845,                   !- Conductivity
    1842.1221,                !- Density
    988,                      !- Specific Heat
    0.9,                      !- Thermal Absorptance
    0.5,                      !- Solar Absorptance
    0.5;                      !- Visible Absorptance

Material,
    GYP2,                     !- Name
    MediumRough,              !- Roughness
    0.01905,                  !- Thickness
    0.7845,                   !- Conductivity
    1842.1221,                !- Density
    988,                      !- Specific Heat
    0.9,                      !- Thermal Absorptance
    0.5,                      !- Solar Absorptance
    0.5;                      !- Visible Absorptance

Material,
    FINISH FLOORING - TILE 1 / 16 IN,    !- Name
    Smooth,                   !- Roughness
    0.0016,                   !- Thickness
    0.17,                     !- Conductivity
    1922.21,                  !- Density
    1250,                     !- Specific Heat